$DATA1 SOURCE='HSPICE' VERSION='I-2013.12-SP2 64-BIT'
.TITLE '* design problem, ee114/214a- 2018'
 gainmaxa         f3dba            gainmaxb         f3dbb             
 gaindiff         temper           alter#            
   86.4691         1.122e+08         86.3724         1.111e+08        
   92.4415          25.0000        1                 
