$DATA1 SOURCE='HSPICE' VERSION='I-2013.12-SP2 64-BIT'
.TITLE '* design problem, ee114/214a- 2018'
 gainmaxa         f3dba            gainmaxb         f3dbb             
 gaindiff         temper           alter#            
   85.5660         7.426e+07         85.5660         7.426e+07        
   91.5866          25.0000        1                 
