$DATA1 SOURCE='HSPICE' VERSION='I-2013.12-SP2 64-BIT'
.TITLE '* design problem, ee114/214a- 2018'
 gainmaxa         f3dba            gainmaxb         f3dbb             
 gaindiff         temper           alter#            
   77.1740         7.131e+07         77.1740         7.131e+07        
   83.1946          25.0000        1                 
